*SPEF "ieee 1481-1999"
*DESIGN "user_project_wrapper"
*DATE "11:11:11 Fri 11 11, 1111"
*VENDOR "OpenRCX"
*PROGRAM "Parallel Extraction"
*VERSION "1.0"
*DESIGN_FLOW "NAME_SCOPE LOCAL" "PIN_CAP NONE"
*DIVIDER /
*DELIMITER :
*BUS_DELIMITER []
*T_UNIT 1 NS
*C_UNIT 1 PF
*R_UNIT 1 OHM
*L_UNIT 1 HENRY

*NAME_MAP
*1 io_in[0]
*2 io_in[10]
*3 io_in[11]
*4 io_in[12]
*5 io_in[13]
*6 io_in[14]
*7 io_in[15]
*8 io_in[16]
*9 io_in[17]
*10 io_in[18]
*11 io_in[19]
*12 io_in[1]
*13 io_in[20]
*14 io_in[21]
*15 io_in[22]
*16 io_in[23]
*17 io_in[24]
*18 io_in[25]
*19 io_in[26]
*20 io_in[27]
*21 io_in[28]
*22 io_in[29]
*23 io_in[2]
*24 io_in[30]
*25 io_in[31]
*26 io_in[32]
*27 io_in[33]
*28 io_in[34]
*29 io_in[35]
*30 io_in[36]
*31 io_in[37]
*32 io_in[3]
*33 io_in[4]
*34 io_in[5]
*35 io_in[6]
*36 io_in[7]
*37 io_in[8]
*38 io_in[9]
*39 io_oeb[0]
*40 io_oeb[10]
*41 io_oeb[11]
*42 io_oeb[12]
*43 io_oeb[13]
*44 io_oeb[14]
*45 io_oeb[15]
*46 io_oeb[16]
*47 io_oeb[17]
*48 io_oeb[18]
*49 io_oeb[19]
*50 io_oeb[1]
*51 io_oeb[20]
*52 io_oeb[21]
*53 io_oeb[22]
*54 io_oeb[23]
*55 io_oeb[24]
*56 io_oeb[25]
*57 io_oeb[26]
*58 io_oeb[27]
*59 io_oeb[28]
*60 io_oeb[29]
*61 io_oeb[2]
*62 io_oeb[30]
*63 io_oeb[31]
*64 io_oeb[32]
*65 io_oeb[33]
*66 io_oeb[34]
*67 io_oeb[35]
*68 io_oeb[36]
*69 io_oeb[37]
*70 io_oeb[3]
*71 io_oeb[4]
*72 io_oeb[5]
*73 io_oeb[6]
*74 io_oeb[7]
*75 io_oeb[8]
*76 io_oeb[9]
*77 io_out[0]
*78 io_out[10]
*79 io_out[11]
*80 io_out[12]
*81 io_out[13]
*82 io_out[14]
*83 io_out[15]
*84 io_out[16]
*85 io_out[17]
*86 io_out[18]
*87 io_out[19]
*88 io_out[1]
*89 io_out[20]
*90 io_out[21]
*91 io_out[22]
*92 io_out[23]
*93 io_out[24]
*94 io_out[25]
*95 io_out[26]
*96 io_out[27]
*97 io_out[28]
*98 io_out[29]
*99 io_out[2]
*100 io_out[30]
*101 io_out[31]
*102 io_out[32]
*103 io_out[33]
*104 io_out[34]
*105 io_out[35]
*106 io_out[36]
*107 io_out[37]
*108 io_out[3]
*109 io_out[4]
*110 io_out[5]
*111 io_out[6]
*112 io_out[7]
*113 io_out[8]
*114 io_out[9]
*115 la_data_in[0]
*116 la_data_in[10]
*117 la_data_in[11]
*118 la_data_in[12]
*119 la_data_in[13]
*120 la_data_in[14]
*121 la_data_in[15]
*122 la_data_in[16]
*123 la_data_in[17]
*124 la_data_in[18]
*125 la_data_in[19]
*126 la_data_in[1]
*127 la_data_in[20]
*128 la_data_in[21]
*129 la_data_in[22]
*130 la_data_in[23]
*131 la_data_in[24]
*132 la_data_in[25]
*133 la_data_in[26]
*134 la_data_in[27]
*135 la_data_in[28]
*136 la_data_in[29]
*137 la_data_in[2]
*138 la_data_in[30]
*139 la_data_in[31]
*140 la_data_in[32]
*141 la_data_in[33]
*142 la_data_in[34]
*143 la_data_in[35]
*144 la_data_in[36]
*145 la_data_in[37]
*146 la_data_in[38]
*147 la_data_in[39]
*148 la_data_in[3]
*149 la_data_in[40]
*150 la_data_in[41]
*151 la_data_in[42]
*152 la_data_in[43]
*153 la_data_in[44]
*154 la_data_in[45]
*155 la_data_in[46]
*156 la_data_in[47]
*157 la_data_in[48]
*158 la_data_in[49]
*159 la_data_in[4]
*160 la_data_in[50]
*161 la_data_in[51]
*162 la_data_in[52]
*163 la_data_in[53]
*164 la_data_in[54]
*165 la_data_in[55]
*166 la_data_in[56]
*167 la_data_in[57]
*168 la_data_in[58]
*169 la_data_in[59]
*170 la_data_in[5]
*171 la_data_in[60]
*172 la_data_in[61]
*173 la_data_in[62]
*174 la_data_in[63]
*175 la_data_in[6]
*176 la_data_in[7]
*177 la_data_in[8]
*178 la_data_in[9]
*179 la_data_out[0]
*180 la_data_out[10]
*181 la_data_out[11]
*182 la_data_out[12]
*183 la_data_out[13]
*184 la_data_out[14]
*185 la_data_out[15]
*186 la_data_out[16]
*187 la_data_out[17]
*188 la_data_out[18]
*189 la_data_out[19]
*190 la_data_out[1]
*191 la_data_out[20]
*192 la_data_out[21]
*193 la_data_out[22]
*194 la_data_out[23]
*195 la_data_out[24]
*196 la_data_out[25]
*197 la_data_out[26]
*198 la_data_out[27]
*199 la_data_out[28]
*200 la_data_out[29]
*201 la_data_out[2]
*202 la_data_out[30]
*203 la_data_out[31]
*204 la_data_out[32]
*205 la_data_out[33]
*206 la_data_out[34]
*207 la_data_out[35]
*208 la_data_out[36]
*209 la_data_out[37]
*210 la_data_out[38]
*211 la_data_out[39]
*212 la_data_out[3]
*213 la_data_out[40]
*214 la_data_out[41]
*215 la_data_out[42]
*216 la_data_out[43]
*217 la_data_out[44]
*218 la_data_out[45]
*219 la_data_out[46]
*220 la_data_out[47]
*221 la_data_out[48]
*222 la_data_out[49]
*223 la_data_out[4]
*224 la_data_out[50]
*225 la_data_out[51]
*226 la_data_out[52]
*227 la_data_out[53]
*228 la_data_out[54]
*229 la_data_out[55]
*230 la_data_out[56]
*231 la_data_out[57]
*232 la_data_out[58]
*233 la_data_out[59]
*234 la_data_out[5]
*235 la_data_out[60]
*236 la_data_out[61]
*237 la_data_out[62]
*238 la_data_out[63]
*239 la_data_out[6]
*240 la_data_out[7]
*241 la_data_out[8]
*242 la_data_out[9]
*243 la_oenb[0]
*244 la_oenb[10]
*245 la_oenb[11]
*246 la_oenb[12]
*247 la_oenb[13]
*248 la_oenb[14]
*249 la_oenb[15]
*250 la_oenb[16]
*251 la_oenb[17]
*252 la_oenb[18]
*253 la_oenb[19]
*254 la_oenb[1]
*255 la_oenb[20]
*256 la_oenb[21]
*257 la_oenb[22]
*258 la_oenb[23]
*259 la_oenb[24]
*260 la_oenb[25]
*261 la_oenb[26]
*262 la_oenb[27]
*263 la_oenb[28]
*264 la_oenb[29]
*265 la_oenb[2]
*266 la_oenb[30]
*267 la_oenb[31]
*268 la_oenb[32]
*269 la_oenb[33]
*270 la_oenb[34]
*271 la_oenb[35]
*272 la_oenb[36]
*273 la_oenb[37]
*274 la_oenb[38]
*275 la_oenb[39]
*276 la_oenb[3]
*277 la_oenb[40]
*278 la_oenb[41]
*279 la_oenb[42]
*280 la_oenb[43]
*281 la_oenb[44]
*282 la_oenb[45]
*283 la_oenb[46]
*284 la_oenb[47]
*285 la_oenb[48]
*286 la_oenb[49]
*287 la_oenb[4]
*288 la_oenb[50]
*289 la_oenb[51]
*290 la_oenb[52]
*291 la_oenb[53]
*292 la_oenb[54]
*293 la_oenb[55]
*294 la_oenb[56]
*295 la_oenb[57]
*296 la_oenb[58]
*297 la_oenb[59]
*298 la_oenb[5]
*299 la_oenb[60]
*300 la_oenb[61]
*301 la_oenb[62]
*302 la_oenb[63]
*303 la_oenb[6]
*304 la_oenb[7]
*305 la_oenb[8]
*306 la_oenb[9]
*307 user_clock2
*308 user_irq[0]
*309 user_irq[1]
*310 user_irq[2]
*313 wb_clk_i
*314 wb_rst_i
*315 wbs_ack_o
*316 wbs_adr_i[0]
*317 wbs_adr_i[10]
*318 wbs_adr_i[11]
*319 wbs_adr_i[12]
*320 wbs_adr_i[13]
*321 wbs_adr_i[14]
*322 wbs_adr_i[15]
*323 wbs_adr_i[16]
*324 wbs_adr_i[17]
*325 wbs_adr_i[18]
*326 wbs_adr_i[19]
*327 wbs_adr_i[1]
*328 wbs_adr_i[20]
*329 wbs_adr_i[21]
*330 wbs_adr_i[22]
*331 wbs_adr_i[23]
*332 wbs_adr_i[24]
*333 wbs_adr_i[25]
*334 wbs_adr_i[26]
*335 wbs_adr_i[27]
*336 wbs_adr_i[28]
*337 wbs_adr_i[29]
*338 wbs_adr_i[2]
*339 wbs_adr_i[30]
*340 wbs_adr_i[31]
*341 wbs_adr_i[3]
*342 wbs_adr_i[4]
*343 wbs_adr_i[5]
*344 wbs_adr_i[6]
*345 wbs_adr_i[7]
*346 wbs_adr_i[8]
*347 wbs_adr_i[9]
*348 wbs_cyc_i
*349 wbs_dat_i[0]
*350 wbs_dat_i[10]
*351 wbs_dat_i[11]
*352 wbs_dat_i[12]
*353 wbs_dat_i[13]
*354 wbs_dat_i[14]
*355 wbs_dat_i[15]
*356 wbs_dat_i[16]
*357 wbs_dat_i[17]
*358 wbs_dat_i[18]
*359 wbs_dat_i[19]
*360 wbs_dat_i[1]
*361 wbs_dat_i[20]
*362 wbs_dat_i[21]
*363 wbs_dat_i[22]
*364 wbs_dat_i[23]
*365 wbs_dat_i[24]
*366 wbs_dat_i[25]
*367 wbs_dat_i[26]
*368 wbs_dat_i[27]
*369 wbs_dat_i[28]
*370 wbs_dat_i[29]
*371 wbs_dat_i[2]
*372 wbs_dat_i[30]
*373 wbs_dat_i[31]
*374 wbs_dat_i[3]
*375 wbs_dat_i[4]
*376 wbs_dat_i[5]
*377 wbs_dat_i[6]
*378 wbs_dat_i[7]
*379 wbs_dat_i[8]
*380 wbs_dat_i[9]
*381 wbs_dat_o[0]
*382 wbs_dat_o[10]
*383 wbs_dat_o[11]
*384 wbs_dat_o[12]
*385 wbs_dat_o[13]
*386 wbs_dat_o[14]
*387 wbs_dat_o[15]
*388 wbs_dat_o[16]
*389 wbs_dat_o[17]
*390 wbs_dat_o[18]
*391 wbs_dat_o[19]
*392 wbs_dat_o[1]
*393 wbs_dat_o[20]
*394 wbs_dat_o[21]
*395 wbs_dat_o[22]
*396 wbs_dat_o[23]
*397 wbs_dat_o[24]
*398 wbs_dat_o[25]
*399 wbs_dat_o[26]
*400 wbs_dat_o[27]
*401 wbs_dat_o[28]
*402 wbs_dat_o[29]
*403 wbs_dat_o[2]
*404 wbs_dat_o[30]
*405 wbs_dat_o[31]
*406 wbs_dat_o[3]
*407 wbs_dat_o[4]
*408 wbs_dat_o[5]
*409 wbs_dat_o[6]
*410 wbs_dat_o[7]
*411 wbs_dat_o[8]
*412 wbs_dat_o[9]
*413 wbs_sel_i[0]
*414 wbs_sel_i[1]
*415 wbs_sel_i[2]
*416 wbs_sel_i[3]
*417 wbs_stb_i
*418 wbs_we_i
*419 mprj

*PORTS
io_in[0] I
io_in[10] I
io_in[11] I
io_in[12] I
io_in[13] I
io_in[14] I
io_in[15] I
io_in[16] I
io_in[17] I
io_in[18] I
io_in[19] I
io_in[1] I
io_in[20] I
io_in[21] I
io_in[22] I
io_in[23] I
io_in[24] I
io_in[25] I
io_in[26] I
io_in[27] I
io_in[28] I
io_in[29] I
io_in[2] I
io_in[30] I
io_in[31] I
io_in[32] I
io_in[33] I
io_in[34] I
io_in[35] I
io_in[36] I
io_in[37] I
io_in[3] I
io_in[4] I
io_in[5] I
io_in[6] I
io_in[7] I
io_in[8] I
io_in[9] I
io_oeb[0] O
io_oeb[10] O
io_oeb[11] O
io_oeb[12] O
io_oeb[13] O
io_oeb[14] O
io_oeb[15] O
io_oeb[16] O
io_oeb[17] O
io_oeb[18] O
io_oeb[19] O
io_oeb[1] O
io_oeb[20] O
io_oeb[21] O
io_oeb[22] O
io_oeb[23] O
io_oeb[24] O
io_oeb[25] O
io_oeb[26] O
io_oeb[27] O
io_oeb[28] O
io_oeb[29] O
io_oeb[2] O
io_oeb[30] O
io_oeb[31] O
io_oeb[32] O
io_oeb[33] O
io_oeb[34] O
io_oeb[35] O
io_oeb[36] O
io_oeb[37] O
io_oeb[3] O
io_oeb[4] O
io_oeb[5] O
io_oeb[6] O
io_oeb[7] O
io_oeb[8] O
io_oeb[9] O
io_out[0] O
io_out[10] O
io_out[11] O
io_out[12] O
io_out[13] O
io_out[14] O
io_out[15] O
io_out[16] O
io_out[17] O
io_out[18] O
io_out[19] O
io_out[1] O
io_out[20] O
io_out[21] O
io_out[22] O
io_out[23] O
io_out[24] O
io_out[25] O
io_out[26] O
io_out[27] O
io_out[28] O
io_out[29] O
io_out[2] O
io_out[30] O
io_out[31] O
io_out[32] O
io_out[33] O
io_out[34] O
io_out[35] O
io_out[36] O
io_out[37] O
io_out[3] O
io_out[4] O
io_out[5] O
io_out[6] O
io_out[7] O
io_out[8] O
io_out[9] O
la_data_in[0] I
la_data_in[10] I
la_data_in[11] I
la_data_in[12] I
la_data_in[13] I
la_data_in[14] I
la_data_in[15] I
la_data_in[16] I
la_data_in[17] I
la_data_in[18] I
la_data_in[19] I
la_data_in[1] I
la_data_in[20] I
la_data_in[21] I
la_data_in[22] I
la_data_in[23] I
la_data_in[24] I
la_data_in[25] I
la_data_in[26] I
la_data_in[27] I
la_data_in[28] I
la_data_in[29] I
la_data_in[2] I
la_data_in[30] I
la_data_in[31] I
la_data_in[32] I
la_data_in[33] I
la_data_in[34] I
la_data_in[35] I
la_data_in[36] I
la_data_in[37] I
la_data_in[38] I
la_data_in[39] I
la_data_in[3] I
la_data_in[40] I
la_data_in[41] I
la_data_in[42] I
la_data_in[43] I
la_data_in[44] I
la_data_in[45] I
la_data_in[46] I
la_data_in[47] I
la_data_in[48] I
la_data_in[49] I
la_data_in[4] I
la_data_in[50] I
la_data_in[51] I
la_data_in[52] I
la_data_in[53] I
la_data_in[54] I
la_data_in[55] I
la_data_in[56] I
la_data_in[57] I
la_data_in[58] I
la_data_in[59] I
la_data_in[5] I
la_data_in[60] I
la_data_in[61] I
la_data_in[62] I
la_data_in[63] I
la_data_in[6] I
la_data_in[7] I
la_data_in[8] I
la_data_in[9] I
la_data_out[0] O
la_data_out[10] O
la_data_out[11] O
la_data_out[12] O
la_data_out[13] O
la_data_out[14] O
la_data_out[15] O
la_data_out[16] O
la_data_out[17] O
la_data_out[18] O
la_data_out[19] O
la_data_out[1] O
la_data_out[20] O
la_data_out[21] O
la_data_out[22] O
la_data_out[23] O
la_data_out[24] O
la_data_out[25] O
la_data_out[26] O
la_data_out[27] O
la_data_out[28] O
la_data_out[29] O
la_data_out[2] O
la_data_out[30] O
la_data_out[31] O
la_data_out[32] O
la_data_out[33] O
la_data_out[34] O
la_data_out[35] O
la_data_out[36] O
la_data_out[37] O
la_data_out[38] O
la_data_out[39] O
la_data_out[3] O
la_data_out[40] O
la_data_out[41] O
la_data_out[42] O
la_data_out[43] O
la_data_out[44] O
la_data_out[45] O
la_data_out[46] O
la_data_out[47] O
la_data_out[48] O
la_data_out[49] O
la_data_out[4] O
la_data_out[50] O
la_data_out[51] O
la_data_out[52] O
la_data_out[53] O
la_data_out[54] O
la_data_out[55] O
la_data_out[56] O
la_data_out[57] O
la_data_out[58] O
la_data_out[59] O
la_data_out[5] O
la_data_out[60] O
la_data_out[61] O
la_data_out[62] O
la_data_out[63] O
la_data_out[6] O
la_data_out[7] O
la_data_out[8] O
la_data_out[9] O
la_oenb[0] I
la_oenb[10] I
la_oenb[11] I
la_oenb[12] I
la_oenb[13] I
la_oenb[14] I
la_oenb[15] I
la_oenb[16] I
la_oenb[17] I
la_oenb[18] I
la_oenb[19] I
la_oenb[1] I
la_oenb[20] I
la_oenb[21] I
la_oenb[22] I
la_oenb[23] I
la_oenb[24] I
la_oenb[25] I
la_oenb[26] I
la_oenb[27] I
la_oenb[28] I
la_oenb[29] I
la_oenb[2] I
la_oenb[30] I
la_oenb[31] I
la_oenb[32] I
la_oenb[33] I
la_oenb[34] I
la_oenb[35] I
la_oenb[36] I
la_oenb[37] I
la_oenb[38] I
la_oenb[39] I
la_oenb[3] I
la_oenb[40] I
la_oenb[41] I
la_oenb[42] I
la_oenb[43] I
la_oenb[44] I
la_oenb[45] I
la_oenb[46] I
la_oenb[47] I
la_oenb[48] I
la_oenb[49] I
la_oenb[4] I
la_oenb[50] I
la_oenb[51] I
la_oenb[52] I
la_oenb[53] I
la_oenb[54] I
la_oenb[55] I
la_oenb[56] I
la_oenb[57] I
la_oenb[58] I
la_oenb[59] I
la_oenb[5] I
la_oenb[60] I
la_oenb[61] I
la_oenb[62] I
la_oenb[63] I
la_oenb[6] I
la_oenb[7] I
la_oenb[8] I
la_oenb[9] I
user_clock2 I
user_irq[0] O
user_irq[1] O
user_irq[2] O
wb_clk_i I
wb_rst_i I
wbs_ack_o O
wbs_adr_i[0] I
wbs_adr_i[10] I
wbs_adr_i[11] I
wbs_adr_i[12] I
wbs_adr_i[13] I
wbs_adr_i[14] I
wbs_adr_i[15] I
wbs_adr_i[16] I
wbs_adr_i[17] I
wbs_adr_i[18] I
wbs_adr_i[19] I
wbs_adr_i[1] I
wbs_adr_i[20] I
wbs_adr_i[21] I
wbs_adr_i[22] I
wbs_adr_i[23] I
wbs_adr_i[24] I
wbs_adr_i[25] I
wbs_adr_i[26] I
wbs_adr_i[27] I
wbs_adr_i[28] I
wbs_adr_i[29] I
wbs_adr_i[2] I
wbs_adr_i[30] I
wbs_adr_i[31] I
wbs_adr_i[3] I
wbs_adr_i[4] I
wbs_adr_i[5] I
wbs_adr_i[6] I
wbs_adr_i[7] I
wbs_adr_i[8] I
wbs_adr_i[9] I
wbs_cyc_i I
wbs_dat_i[0] I
wbs_dat_i[10] I
wbs_dat_i[11] I
wbs_dat_i[12] I
wbs_dat_i[13] I
wbs_dat_i[14] I
wbs_dat_i[15] I
wbs_dat_i[16] I
wbs_dat_i[17] I
wbs_dat_i[18] I
wbs_dat_i[19] I
wbs_dat_i[1] I
wbs_dat_i[20] I
wbs_dat_i[21] I
wbs_dat_i[22] I
wbs_dat_i[23] I
wbs_dat_i[24] I
wbs_dat_i[25] I
wbs_dat_i[26] I
wbs_dat_i[27] I
wbs_dat_i[28] I
wbs_dat_i[29] I
wbs_dat_i[2] I
wbs_dat_i[30] I
wbs_dat_i[31] I
wbs_dat_i[3] I
wbs_dat_i[4] I
wbs_dat_i[5] I
wbs_dat_i[6] I
wbs_dat_i[7] I
wbs_dat_i[8] I
wbs_dat_i[9] I
wbs_dat_o[0] O
wbs_dat_o[10] O
wbs_dat_o[11] O
wbs_dat_o[12] O
wbs_dat_o[13] O
wbs_dat_o[14] O
wbs_dat_o[15] O
wbs_dat_o[16] O
wbs_dat_o[17] O
wbs_dat_o[18] O
wbs_dat_o[19] O
wbs_dat_o[1] O
wbs_dat_o[20] O
wbs_dat_o[21] O
wbs_dat_o[22] O
wbs_dat_o[23] O
wbs_dat_o[24] O
wbs_dat_o[25] O
wbs_dat_o[26] O
wbs_dat_o[27] O
wbs_dat_o[28] O
wbs_dat_o[29] O
wbs_dat_o[2] O
wbs_dat_o[30] O
wbs_dat_o[31] O
wbs_dat_o[3] O
wbs_dat_o[4] O
wbs_dat_o[5] O
wbs_dat_o[6] O
wbs_dat_o[7] O
wbs_dat_o[8] O
wbs_dat_o[9] O
wbs_sel_i[0] I
wbs_sel_i[1] I
wbs_sel_i[2] I
wbs_sel_i[3] I
wbs_stb_i I
wbs_we_i I

*D_NET *1 0.608496
*CONN
*P io_in[0] I
*I *419:io_in[0] I *D user_proj
*CAP
1 io_in[0] 0.000276945
2 *419:io_in[0] 0.000895811
3 *1:11 0.0605629
4 *1:10 0.0596671
5 *1:8 0.0670157
6 *1:7 0.0672927
7 *1:8 *12:8 0
8 *1:8 *23:8 0
9 *1:8 *32:8 0.00121604
10 *1:8 *33:8 0.0104557
11 *1:8 *35:8 0.00748312
12 *1:8 *36:8 0.0113055
13 *1:8 *37:8 0.0751925
14 *1:8 *39:13 0
15 *1:8 *50:13 0
16 *1:8 *70:17 0.00137816
17 *1:11 *419:io_in[16] 0.000307052
18 *1:11 *419:io_in[25] 0.000207351
19 *1:11 *3:10 0.00348001
20 *1:11 *24:19 0.187061
21 *1:11 *38:19 0.0272208
22 *1:11 *53:8 0.0107851
23 *1:11 *54:8 0.00106271
24 *1:11 *56:8 0
25 *1:11 *83:8 0
26 *1:11 *90:8 0.0156301
*RES
1 io_in[0] *1:7 6.705 
2 *1:7 *1:8 701.19 
3 *1:8 *1:10 4.5 
4 *1:10 *1:11 848.43 
5 *1:11 *419:io_in[0] 10.485 
*END

*D_NET *2 0.329652
*CONN
*P io_in[10] I
*I *419:io_in[10] I *D user_proj
*CAP
1 io_in[10] 0.00070297
2 *419:io_in[10] 8.66725e-05
3 *2:11 0.0642131
4 *2:10 0.0641264
5 *2:8 0.00384092
6 *2:7 0.00454389
7 *2:8 *39:13 0.0230155
8 *2:11 *34:15 0.0050601
9 *2:11 *64:7 0
10 *2:11 *68:8 0.164063
*RES
1 io_in[10] *2:7 8.685 
2 *2:7 *2:8 58.59 
3 *2:8 *2:10 4.5 
4 *2:10 *2:11 689.85 
5 *2:11 *419:io_in[10] 5.085 
*END

*D_NET *3 0.329685
*CONN
*P io_in[11] I
*I *419:io_in[11] I *D user_proj
*CAP
1 io_in[11] 0.00172147
2 *419:io_in[11] 0.0019479
3 *3:11 0.0573535
4 *3:10 0.0571271
5 *3:11 *419:io_in[13] 0.000237266
6 *3:11 *419:io_in[23] 0.000237266
7 *3:11 *419:io_in[33] 0.000237266
8 *3:11 *43:9 0.00020563
9 *3:11 *48:13 0.00020563
10 *3:11 *65:13 0.00020563
11 *3:11 *88:10 0.206727
12 *1:11 *3:10 0.00348001
*RES
1 io_in[11] *3:10 25.695 
2 *3:10 *3:11 668.25 
3 *3:11 *419:io_in[11] 16.875 
*END

*D_NET *4 0.19153
*CONN
*P io_in[12] I
*I *419:io_in[12] I *D user_proj
*CAP
1 io_in[12] 0.000167227
2 *419:io_in[12] 0.00156173
3 *4:16 0.0104205
4 *4:15 0.00885876
5 *4:13 0.0844549
6 *4:11 0.0846221
7 *419:io_in[12] *12:11 0
8 *419:io_in[12] *40:8 0.00144471
9 *4:16 *42:10 0
*RES
1 io_in[12] *4:11 2.115 
2 *4:11 *4:13 659.07 
3 *4:13 *4:15 4.5 
4 *4:15 *4:16 61.29 
5 *4:16 *419:io_in[12] 19.575 
*END

*D_NET *5 0.252072
*CONN
*P io_in[13] I
*I *419:io_in[13] I *D user_proj
*CAP
1 io_in[13] 0.000509694
2 *419:io_in[13] 0.00688306
3 *5:11 0.085564
4 *5:10 0.0786809
5 *5:8 0.000168902
6 *5:7 0.000678596
7 *5:8 *6:8 0.035569
8 *5:8 *7:11 0.0345169
9 *5:8 *50:13 0.000256967
10 *5:8 *70:17 7.37593e-05
11 *5:11 *39:10 0
12 *5:11 *50:10 0
13 *5:11 *100:10 0.00893243
14 *3:11 *419:io_in[13] 0.000237266
*RES
1 io_in[13] *5:7 8.505 
2 *5:7 *5:8 90.63 
3 *5:8 *5:10 4.5 
4 *5:10 *5:11 645.57 
5 *5:11 *419:io_in[13] 49.635 
*END

*D_NET *6 0.263501
*CONN
*P io_in[14] I
*I *419:io_in[14] I *D user_proj
*CAP
1 io_in[14] 0.000661499
2 *419:io_in[14] 0.00711289
3 *6:11 0.0800898
4 *6:10 0.0729769
5 *6:8 0.0109664
6 *6:7 0.0116279
7 *6:8 *7:11 0.0112971
8 *6:8 *39:13 0.00058768
9 *6:8 *50:13 0.000133858
10 *6:11 *29:11 0
11 *6:11 *39:10 0
12 *6:11 *63:10 0.00874358
13 *6:11 *89:10 0.0237341
14 *5:8 *6:8 0.035569
*RES
1 io_in[14] *6:7 8.685 
2 *6:7 *6:8 157.05 
3 *6:8 *6:10 4.5 
4 *6:10 *6:11 629.19 
5 *6:11 *419:io_in[14] 46.395 
*END

*D_NET *7 0.256707
*CONN
*P io_in[15] I
*I *419:io_in[15] I *D user_proj
*CAP
1 io_in[15] 0.00272821
2 *419:io_in[15] 0.000166616
3 *7:21 0.00713116
4 *7:14 0.0810343
5 *7:13 0.0740698
6 *7:11 0.0161896
7 *7:10 0.0189178
8 *7:11 *70:17 0.000759471
9 *7:14 *41:10 0
10 *7:14 *50:10 0
11 *7:14 *104:14 0.00989614
12 *5:8 *7:11 0.0345169
13 *6:8 *7:11 0.0112971
*RES
1 io_in[15] *7:10 30.915 
2 *7:10 *7:11 197.19 
3 *7:11 *7:13 4.5 
4 *7:13 *7:14 613.35 
5 *7:14 *7:21 49.95 
6 *7:21 *419:io_in[15] 1.305 
*END

*D_NET *8 0.367712
*CONN
*P io_in[16] I
*I *419:io_in[16] I *D user_proj
*CAP
1 io_in[16] 0.000523307
2 *419:io_in[16] 0.00108743
3 *8:11 0.0335758
4 *8:10 0.0324884
5 *8:8 0.00955984
6 *8:7 0.0100831
7 *419:io_in[16] *90:8 0.00118694
8 *8:8 *9:16 0.0482337
9 *8:8 *16:8 0.0416751
10 *8:8 *45:10 0.188992
11 *8:11 *46:9 0
12 *1:11 *419:io_in[16] 0.000307052
*RES
1 io_in[16] *8:7 8.505 
2 *8:7 *8:8 472.95 
3 *8:8 *8:10 4.5 
4 *8:10 *8:11 241.11 
5 *8:11 *419:io_in[16] 17.595 
*END

*D_NET *9 0.202031
*CONN
*P io_in[17] I
*I *419:io_in[17] I *D user_proj
*CAP
1 io_in[17] 0.000648794
2 *419:io_in[17] 5.17084e-05
3 *9:19 0.0335556
4 *9:18 0.0335039
5 *9:16 0.0243251
6 *9:15 0.0249739
7 *9:16 *16:8 0.0367386
8 *8:8 *9:16 0.0482337
*RES
1 io_in[17] *9:15 10.305 
2 *9:15 *9:16 353.25 
3 *9:16 *9:18 4.5 
4 *9:18 *9:19 246.87 
5 *9:19 *419:io_in[17] 0.405 
*END

*D_NET *10 0.169049
*CONN
*P io_in[18] I
*I *419:io_in[18] I *D user_proj
*CAP
1 io_in[18] 0.00109978
2 *419:io_in[18] 0.00128535
3 *10:11 0.0330405
4 *10:10 0.0317551
5 *10:8 0.0202633
6 *10:7 0.021363
7 *419:io_in[18] *12:11 0
8 *419:io_in[18] *40:8 0.000611937
9 *10:8 *86:20 0.0390632
10 *10:8 *92:20 0.0205668
11 *10:11 *48:13 0
*RES
1 io_in[18] *10:7 12.645 
2 *10:7 *10:8 230.49 
3 *10:8 *10:10 4.5 
4 *10:10 *10:11 235.53 
5 *10:11 *419:io_in[18] 17.415 
*END

*D_NET *11 0.0975959
*CONN
*P io_in[19] I
*I *419:io_in[19] I *D user_proj
*CAP
1 io_in[19] 0.000178873
2 *419:io_in[19] 0.00208805
3 *11:19 0.0148736
4 *11:18 0.0127855
5 *11:16 0.0143472
6 *11:15 0.0143472
7 *11:13 0.0193983
8 *11:11 0.0195771
*RES
1 io_in[19] *11:11 2.115 
2 *11:11 *11:13 148.77 
3 *11:13 *11:15 4.5 
4 *11:15 *11:16 110.79 
5 *11:16 *11:18 4.5 
6 *11:18 *11:19 90.54 
7 *11:19 *419:io_in[19] 13.455 
*END

*D_NET *12 0.839315
*CONN
*P io_in[1] I
*I *419:io_in[1] I *D user_proj
*CAP
1 io_in[1] 0.000488121
2 *419:io_in[1] 0.00127587
3 *12:11 0.0707497
4 *12:10 0.0694738
5 *12:8 0.00312943
6 *12:7 0.00361756
7 *419:io_in[1] io_oeb[22] 0
8 *12:8 *39:13 0.251624
9 *12:8 *50:13 0.234906
10 *12:11 *42:10 0
11 *12:11 *44:10 0
12 *12:11 *61:8 0.0354424
13 *12:11 *76:8 0.00235747
14 *12:11 *96:8 0.166251
15 *419:io_in[12] *12:11 0
16 *419:io_in[18] *12:11 0
17 *1:8 *12:8 0
*RES
1 io_in[1] *12:7 8.325 
2 *12:7 *12:8 640.17 
3 *12:8 *12:10 4.5 
4 *12:10 *12:11 831.15 
5 *12:11 *419:io_in[1] 13.185 
*END

*D_NET *13 0.0717291
*CONN
*P io_in[20] I
*I *419:io_in[20] I *D user_proj
*CAP
1 io_in[20] 0.026267
2 *419:io_in[20] 0.00198317
3 *13:13 0.00805887
4 *13:10 0.00745425
5 *13:5 0.0276455
6 *13:10 *67:10 0
7 *13:10 *103:14 0.000320387
*RES
1 io_in[20] *13:5 200.025 
2 *13:5 *13:10 19.89 
3 *13:10 *13:13 39.51 
4 *13:13 *419:io_in[20] 12.645 
*END

*D_NET *14 0.106817
*CONN
*P io_in[21] I
*I *419:io_in[21] I *D user_proj
*CAP
1 io_in[21] 0.00120735
2 *419:io_in[21] 0.000120653
3 *14:17 0.00834046
4 *14:16 0.00821981
5 *14:14 0.0187973
6 *14:13 0.0187973
7 *14:11 0.0246479
8 *14:10 0.0258552
9 *14:10 *92:20 0.000830624
10 *14:11 *80:5 0
11 *14:14 *67:10 0
12 *14:14 *70:14 0
*RES
1 io_in[21] *14:10 19.215 
2 *14:10 *14:11 189.27 
3 *14:11 *14:13 4.5 
4 *14:13 *14:14 131.13 
5 *14:14 *14:16 4.5 
6 *14:16 *14:17 53.19 
7 *14:17 *419:io_in[21] 0.945 
*END

*D_NET *15 0.13406
*CONN
*P io_in[22] I
*I *419:io_in[22] I *D user_proj
*CAP
1 io_in[22] 0.00168659
2 *419:io_in[22] 5.17084e-05
3 *15:15 0.00860146
4 *15:14 0.00854975
5 *15:12 0.0330586
6 *15:11 0.0330586
7 *15:9 0.0236832
8 *15:7 0.0253698
9 *15:12 *70:14 0
*RES
1 io_in[22] *15:7 13.005 
2 *15:7 *15:9 182.34 
3 *15:9 *15:11 4.5 
4 *15:11 *15:12 256.59 
5 *15:12 *15:14 4.5 
6 *15:14 *15:15 55.89 
7 *15:15 *419:io_in[22] 0.405 
*END

*D_NET *16 0.220064
*CONN
*P io_in[23] I
*I *419:io_in[23] I *D user_proj
*CAP
1 io_in[23] 0.000500325
2 *419:io_in[23] 0.00212546
3 *16:11 0.0337955
4 *16:10 0.0316701
5 *16:8 0.0350969
6 *16:7 0.0355972
7 *16:8 *45:10 0.00262769
8 *3:11 *419:io_in[23] 0.000237266
9 *8:8 *16:8 0.0416751
10 *9:16 *16:8 0.0367386
*RES
1 io_in[23] *16:7 8.325 
2 *16:7 *16:8 375.57 
3 *16:8 *16:10 4.5 
4 *16:10 *16:11 235.44 
5 *16:11 *419:io_in[23] 13.995 
*END

*D_NET *17 0.21659
*CONN
*P io_in[24] I
*I *419:io_in[24] I *D user_proj
*CAP
1 io_in[24] 0.000201168
2 *419:io_in[24] 0.00204012
3 *17:16 0.0321659
4 *17:15 0.0301258
5 *17:13 0.0759279
6 *17:11 0.0761291
*RES
1 io_in[24] *17:11 1.935 
2 *17:11 *17:13 480.15 
3 *17:13 *17:15 4.5 
4 *17:15 *17:16 224.28 
5 *17:16 *419:io_in[24] 13.455 
*END

*D_NET *18 0.203978
*CONN
*P io_in[25] I
*I *419:io_in[25] I *D user_proj
*CAP
1 io_in[25] 0.000125876
2 *419:io_in[25] 0.00111363
3 *18:16 0.023353
4 *18:15 0.0222394
5 *18:13 0.0782543
6 *18:11 0.0783802
7 *419:io_in[25] *56:8 0.000304575
8 *1:11 *419:io_in[25] 0.000207351
*RES
1 io_in[25] *18:11 1.395 
2 *18:11 *18:13 494.91 
3 *18:13 *18:15 4.5 
4 *18:15 *18:16 162.81 
5 *18:16 *419:io_in[25] 17.235 
*END

*D_NET *19 0.16069
*CONN
*P io_in[26] I
*I *419:io_in[26] I *D user_proj
*CAP
1 io_in[26] 0.00247526
2 *419:io_in[26] 0.000120653
3 *19:18 0.00887135
4 *19:17 0.0087507
5 *19:15 0.0221942
6 *19:14 0.0221942
7 *19:12 0.00551443
8 *19:9 0.046804
9 *19:7 0.0437648
*RES
1 io_in[26] *19:7 18.585 
2 *19:7 *19:9 322.74 
3 *19:9 *19:12 46.53 
4 *19:12 *19:14 4.5 
5 *19:14 *19:15 171.63 
6 *19:15 *19:17 4.5 
7 *19:17 *19:18 58.59 
8 *19:18 *419:io_in[26] 0.945 
*END

*D_NET *20 0.305058
*CONN
*P io_in[27] I
*I *419:io_in[27] I *D user_proj
*CAP
1 io_in[27] 0.000335273
2 *419:io_in[27] 0.00377474
3 *20:19 0.0129523
4 *20:18 0.0102461
5 *20:13 0.0214671
6 *20:11 0.0207339
7 *20:13 *32:11 0.0973953
8 *20:13 *55:14 0.00543336
9 *20:13 *72:10 0.0823472
10 *20:18 *86:13 0
11 *20:19 *79:10 0.050373
12 *20:19 *112:8 0
*RES
1 io_in[27] *20:11 2.835 
2 *20:11 *20:13 395.01 
3 *20:13 *20:18 15.93 
4 *20:18 *20:19 133.83 
5 *20:19 *419:io_in[27] 28.575 
*END

*D_NET *21 0.257898
*CONN
*P io_in[28] I
*I *419:io_in[28] I *D user_proj
*CAP
1 io_in[28] 0.000249598
2 *419:io_in[28] 0.000242506
3 *21:19 0.0311537
4 *21:18 0.0359836
5 *21:13 0.0177087
6 *21:11 0.0128859
7 *21:18 *77:11 0
8 *21:19 *30:15 0.0163026
9 *21:19 *34:15 0.143371
*RES
1 io_in[28] *21:11 2.475 
2 *21:11 *21:13 95.31 
3 *21:13 *21:18 47.61 
4 *21:18 *21:19 449.55 
5 *21:19 *419:io_in[28] 5.805 
*END

*D_NET *22 0.353833
*CONN
*P io_in[29] I
*I *419:io_in[29] I *D user_proj
*CAP
1 io_in[29] 0.000177869
2 *419:io_in[29] 0.00116411
3 *22:19 0.0154449
4 *22:18 0.0142807
5 *22:16 0.0145463
6 *22:15 0.0145463
7 *22:13 0.0118322
8 *22:11 0.01201
9 *22:19 *24:19 0.0287554
10 *22:19 *38:19 0.124705
11 *22:19 *40:8 0.116371
*RES
1 io_in[29] *22:11 1.935 
2 *22:11 *22:13 89.91 
3 *22:13 *22:15 4.5 
4 *22:15 *22:16 111.33 
5 *22:16 *22:18 4.5 
6 *22:18 *22:19 470.61 
7 *22:19 *419:io_in[29] 11.025 
*END

*D_NET *23 0.792209
*CONN
*P io_in[2] I
*I *419:io_in[2] I *D user_proj
*CAP
1 io_in[2] 0.000445006
2 *419:io_in[2] 0.00405224
3 *23:11 0.0814158
4 *23:10 0.0773636
5 *23:8 0.00450624
6 *23:7 0.00495124
7 *23:8 *32:8 0.208923
8 *23:8 *50:13 0.23398
9 *23:11 *46:10 0
10 *23:11 *62:10 0.176571
11 *1:8 *23:8 0
*RES
1 io_in[2] *23:7 7.965 
2 *23:7 *23:8 595.35 
3 *23:8 *23:10 4.5 
4 *23:10 *23:11 816.21 
5 *23:11 *419:io_in[2] 32.535 
*END

*D_NET *24 0.427584
*CONN
*P io_in[30] I
*I *419:io_in[30] I *D user_proj
*CAP
1 io_in[30] 0.0027453
2 *419:io_in[30] 0.000947364
3 *24:19 0.0143702
4 *24:18 0.0134228
5 *24:16 0.023285
6 *24:15 0.0260303
7 *24:19 *38:19 0.130967
8 *24:19 *54:8 0
9 *1:11 *24:19 0.187061
10 *22:19 *24:19 0.0287554
*RES
1 io_in[30] *24:15 25.605 
2 *24:15 *24:16 178.47 
3 *24:16 *24:18 4.5 
4 *24:18 *24:19 556.47 
5 *24:19 *419:io_in[30] 10.665 
*END

*D_NET *25 0.461617
*CONN
*P io_in[31] I
*I *419:io_in[31] I *D user_proj
*CAP
1 io_in[31] 0.00119342
2 *419:io_in[31] 0.00189795
3 *25:11 0.0171942
4 *25:10 0.0152963
5 *25:8 0.0326985
6 *25:7 0.0338919
7 *25:11 *60:14 0.0250896
8 *25:11 *88:10 0.182787
9 *25:11 *111:10 0.151569
*RES
1 io_in[31] *25:7 13.365 
2 *25:7 *25:8 251.01 
3 *25:8 *25:10 4.5 
4 *25:10 *25:11 582.03 
5 *25:11 *419:io_in[31] 17.235 
*END

*D_NET *26 0.465143
*CONN
*P io_in[32] I
*I *419:io_in[32] I *D user_proj
*CAP
1 io_in[32] 0.000323383
2 *419:io_in[32] 0.00265322
3 *26:19 0.0148468
4 *26:18 0.0121936
5 *26:16 0.0426276
6 *26:15 0.0426276
7 *26:13 0.0113587
8 *26:11 0.011682
9 *26:19 *74:10 0.153866
10 *26:19 *75:14 0.14843
11 *26:19 *101:10 0.0245336
*RES
1 io_in[32] *26:11 3.015 
2 *26:11 *26:13 87.21 
3 *26:13 *26:15 4.5 
4 *26:15 *26:16 327.33 
5 *26:16 *26:18 4.5 
6 *26:18 *26:19 519.93 
7 *26:19 *419:io_in[32] 22.275 
*END

*D_NET *27 0.421003
*CONN
*P io_in[33] I
*I *419:io_in[33] I *D user_proj
*CAP
1 io_in[33] 0.000242542
2 *419:io_in[33] 0.00369453
3 *27:19 0.0408388
4 *27:18 0.0371442
5 *27:16 0.0521028
6 *27:15 0.0521028
7 *27:13 0.0109838
8 *27:11 0.0112264
9 *27:19 *79:10 0.0153686
10 *27:19 *106:10 0.0141195
11 *27:19 *108:14 0.182941
12 *3:11 *419:io_in[33] 0.000237266
*RES
1 io_in[33] *27:11 2.475 
2 *27:11 *27:13 84.51 
3 *27:13 *27:15 4.5 
4 *27:15 *27:16 400.05 
5 *27:16 *27:18 4.5 
6 *27:18 *27:19 536.13 
7 *27:19 *419:io_in[33] 29.835 
*END

*D_NET *28 0.568245
*CONN
*P io_in[34] I
*I *419:io_in[34] I *D user_proj
*CAP
1 io_in[34] 0.000177869
2 *419:io_in[34] 0.00246829
3 *28:19 0.010295
4 *28:18 0.0078267
5 *28:16 0.0597486
6 *28:15 0.0597486
7 *28:13 0.0106047
8 *28:11 0.0107826
9 *28:19 *65:14 0.216769
10 *28:19 *66:14 0.00203503
11 *28:19 *97:14 0.187789
*RES
1 io_in[34] *28:11 1.935 
2 *28:11 *28:13 81.81 
3 *28:13 *28:15 4.5 
4 *28:15 *28:16 459.63 
5 *28:16 *28:18 4.5 
6 *28:18 *28:19 555.03 
7 *28:19 *419:io_in[34] 21.375 
*END

*D_NET *29 0.471022
*CONN
*P io_in[35] I
*I *419:io_in[35] I *D user_proj
*CAP
1 io_in[35] 0.00194183
2 *419:io_in[35] 0.005773
3 *29:11 0.0535307
4 *29:10 0.0477577
5 *29:8 0.0715565
6 *29:7 0.0734983
7 *29:8 *54:11 0
8 *29:11 *63:10 0.214908
9 *29:11 *86:14 0
10 *29:11 *87:14 0.00205607
11 *29:11 *94:10 0
12 *6:11 *29:11 0
*RES
1 io_in[35] *29:7 18.765 
2 *29:7 *29:8 549.81 
3 *29:8 *29:10 4.5 
4 *29:10 *29:11 638.73 
5 *29:11 *419:io_in[35] 44.595 
*END

*D_NET *30 0.624928
*CONN
*P io_in[36] I
*I *419:io_in[36] I *D user_proj
*CAP
1 io_in[36] 0.00242379
2 *419:io_in[36] 0.000180205
3 *30:15 0.00458917
4 *30:14 0.00440897
5 *30:12 0.0752909
6 *30:11 0.0752909
7 *30:9 0.00778585
8 *30:7 0.0102096
9 *30:15 *34:15 0.193255
10 *30:15 *68:8 0.235191
11 *21:19 *30:15 0.0163026
*RES
1 io_in[36] *30:7 18.585 
2 *30:7 *30:9 60.84 
3 *30:9 *30:11 4.5 
4 *30:11 *30:12 580.95 
5 *30:12 *30:14 4.5 
6 *30:14 *30:15 591.03 
7 *30:15 *419:io_in[36] 5.445 
*END

*D_NET *31 0.390959
*CONN
*P io_in[37] I
*I *419:io_in[37] I *D user_proj
*CAP
1 io_in[37] 0.00193438
2 *419:io_in[37] 0.0018807
3 *31:14 0.0852598
4 *31:13 0.0833791
5 *31:11 0.08586
6 *31:10 0.0877944
7 *419:io_in[37] *78:8 0.00801847
8 *419:io_in[37] *83:8 0.000982076
9 *31:11 *153:16 0.0166759
10 *31:11 *233:8 0.015922
11 *31:14 *149:13 0.00325246
*RES
1 io_in[37] *31:10 23.355 
2 *31:10 *31:11 699.57 
3 *31:11 *31:13 4.5 
4 *31:13 *31:14 644.49 
5 *31:14 *419:io_in[37] 33.975 
*END

*D_NET *32 0.715167
*CONN
*P io_in[3] I
*I *419:io_in[3] I *D user_proj
*CAP
1 io_in[3] 0.000423448
2 *419:io_in[3] 0.00475387
3 *32:11 0.0707503
4 *32:10 0.0659964
5 *32:8 0.00257321
6 *32:7 0.00299666
7 *32:8 *50:13 0.000472264
8 *32:8 *70:17 0.193285
9 *32:11 *46:10 0
10 *32:11 *47:10 0
11 *32:11 *52:10 0.00671811
12 *32:11 *72:10 0.0585975
13 *32:11 *92:16 0.00106499
14 *1:8 *32:8 0.00121604
15 *20:13 *32:11 0.0973953
16 *23:8 *32:8 0.208923
*RES
1 io_in[3] *32:7 7.785 
2 *32:7 *32:8 534.33 
3 *32:8 *32:10 4.5 
4 *32:10 *32:11 802.89 
5 *32:11 *419:io_in[3] 37.575 
*END

*D_NET *33 0.695794
*CONN
*P io_in[4] I
*I *419:io_in[4] I *D user_proj
*CAP
1 io_in[4] 0.000469312
2 *419:io_in[4] 0.00547709
3 *33:11 0.0702102
4 *33:10 0.0647331
5 *33:8 0.00447582
6 *33:7 0.00494514
7 *419:io_in[4] *91:11 0
8 *33:8 *35:8 0.130629
9 *33:8 *36:8 0.00283163
10 *33:8 *70:17 0.187028
11 *33:11 *57:10 0
12 *33:11 *73:10 0.205123
13 *33:11 *84:10 0
14 *33:11 *91:8 0.00941532
15 *33:11 *94:10 0
16 *1:8 *33:8 0.0104557
*RES
1 io_in[4] *33:7 7.425 
2 *33:7 *33:8 476.01 
3 *33:8 *33:10 4.5 
4 *33:10 *33:11 787.05 
5 *33:11 *419:io_in[4] 42.435 
*END

*D_NET *34 0.531036
*CONN
*P io_in[5] I
*I *419:io_in[5] I *D user_proj
*CAP
1 io_in[5] 0.00170666
2 *419:io_in[5] 0.000209435
3 *34:15 0.0142817
4 *34:14 0.0140722
5 *34:12 0.049052
6 *34:11 0.049052
7 *34:9 0.0291748
8 *34:7 0.0308814
9 *34:15 *68:8 0.000919429